/*--------------------------------*- C++ -*----------------------------------*\
| =========                 |                                                 |
| \\      /  F ield         | OpenFOAM: The Open Source CFD Toolbox           |
|  \\    /   O peration     | Version:  v2306                                 |
|   \\  /    A nd           | Website:  www.openfoam.com                      |
|    \\/     M anipulation  |                                                 |
\*---------------------------------------------------------------------------*/
FoamFile
{
    version     2.0;
    format      ascii;
    class       dictionary;
    object      fvSolution;
}
// * * * * * * * * * * * * * * * * * * * * * * * * * * * * * * * * * * * * * //

solvers
{
    "rho.*"
    {
        solver          diagonal;
    }

    p
    {
        solver          GAMG;
        tolerance       1e-07;
        relTol          0.01;
        smoother        GaussSeidel;
        cacheAgglomeration true;
        nCellsInCoarsestLevel 1;
        agglomerator    faceAreaPair;
        mergeLevels     1;
    }

    pFinal
    {
        solver          GAMG;
        tolerance       1e-8;
        relTol          0;
        smoother        GaussSeidel;
        cacheAgglomeration true;
        nCellsInCoarsestLevel 1;
        agglomerator    faceAreaPair;
        mergeLevels     1;
    }

    "(U|h|k|epsilon)"
    {
        solver          PBiCGStab;
        preconditioner  DILU;
        tolerance       1e-7;
        relTol          0.05;
    }

    "(U|h|k|epsilon)Final"
    {
        $U;
    }

    Yi
    {
        solver          PBiCGStab;
        preconditioner  DILU;
        tolerance       1e-8;
        relTol          0.05;
    }

    Ii
    {
        solver                  GAMG;
        tolerance               1e-4;
        relTol                  0;
        smoother                symGaussSeidel;
        maxIter                 1;
        nPostSweeps             1;
    }

    G
    {
        solver          PCG;
        preconditioner  DIC;
        tolerance       1e-5;
        relTol          0.1;
    }

    GFinal
    {
        $G;
        relTol          0;
    }
}

PIMPLE
{
    momentumPredictor   yes;
    nOuterCorrectors    1;
    nCorrectors         3;
    nNonOrthogonalCorrectors 0;
}

relaxationFactors
{
    equations
    {
        ".*"            1;
    }
}


// ************************************************************************* //
