/*--------------------------------*- C++ -*----------------------------------*\
| =========                 |                                                 |
| \\      /  F ield         | OpenFOAM: The Open Source CFD Toolbox           |
|  \\    /   O peration     | Version:  v2306                                 |
|   \\  /    A nd           | Website:  www.openfoam.com                      |
|    \\/     M anipulation  |                                                 |
\*---------------------------------------------------------------------------*/
FoamFile
{
    version     2.0;
    format      ascii;
    class       volScalarField;
    object      Ydefault;
}
// * * * * * * * * * * * * * * * * * * * * * * * * * * * * * * * * * * * * * //

dimensions      [0 0 0 0 0 0 0];

internalField   uniform 0;

boundaryField
{
    open
    {
        type            inletOutlet;
        inletValue      $internalField;
        value           $internalField;
    }

    wall
    {
        type            zeroGradient;
    }

    wall2
    {
        type            zeroGradient;
    }

    inlet
    {
        type            fixedValue;
        value           uniform 0;
    }


    gas
    {
        type            fixedValue;
        value           uniform 0;
    }


}


// ************************************************************************* //
